
CRYSTAL

PRIMVEC
   2.272816120       3.936632997       0.000000000    
   4.545632241       0.000000000       0.000000000    
 -0.2523286889E-15   2.624421998      -3.954717689    

PRIMCOORD
       2       1
Bi   4.545632241       2.624421998      -1.179810928    
Bi   2.272816120       3.936632997      -2.774906761    
