
CRYSTAL

PRIMVEC
   2.608843649       0.000000000       0.000000000    
   0.000000000       2.608843649       0.000000000    
   0.000000000       0.000000000       2.608843649    

PRIMCOORD
       4       1
Pb   0.000000000       0.000000000       0.000000000    
Pb   0.000000000       1.304421825       1.304421825    
Pb   1.304421825       0.000000000       1.304421825    
Pb   1.304421825       1.304421825       0.000000000    
